<?xml version="1.0" encoding="UTF-8"?>

<!-- generated on 2025-02-21 22:36:45.481465 by randomTrips.py v1_22_0+0002-63e50f52594
<configuration>
    <net-file value="map.net.xml"/>
    <route-file value="map.rou.xml"/>
    <length value="True"/>
    <end value="50.0"/>
</configuration>
-->

<!-- generated on 2025-02-21 22:36:45 by Eclipse SUMO duarouter Version 1.22.0
<duarouterConfiguration xmlns:xsi="http://www.w3.org/2001/XMLSchema-instance" xsi:noNamespaceSchemaLocation="http://sumo.dlr.de/xsd/duarouterConfiguration.xsd">

    <input>
        <net-file value="map.net.xml"/>
        <route-files value="trips.trips.xml"/>
    </input>

    <output>
        <output-file value="map.rou.xml"/>
        <alternatives-output value="NUL"/>
    </output>

    <time>
        <begin value="0"/>
        <end value="500.0"/>
    </time>

    <report>
        <no-warnings value="true"/>
        <ignore-errors value="true"/>
        <no-step-log value="true"/>
    </report>

</duarouterConfiguration>
-->

<routes xmlns:xsi="http://www.w3.org/2001/XMLSchema-instance" xsi:noNamespaceSchemaLocation="http://sumo.dlr.de/xsd/routes_file.xsd">

     <vehicle id="0" depart="0.00">
        <route edges="386286298#2 386286298#3 386286298#4 386286298#5"/>
        <stop lane="386286298#4_0" endPos="10" duration="500"/>
    </vehicle>

    <vehicle id="1" depart="1.00">
        <route edges="386286298#2 386286298#3 386286298#4 386286298#5"/>
    </vehicle>

    <vehicle id="2" depart="2.00">
        <route edges="386286298#3 386286298#4 386286298#5 386286298#6"/>
    </vehicle>

    <vehicle id="3" depart="3.00">
        <route edges="737745075#2 737745075#3 737745075#4"/>
    </vehicle>

    <vehicle id="4" depart="4.00">
        <route edges="41383664#4 41383664#3 41383664#2"/>
    </vehicle>

    <vehicle id="5" depart="5.00">
        <route edges="386286298#2 386286298#3 386286298#4 386286298#5"/>
    </vehicle>

    <vehicle id="6" depart="6.00">
        <route edges="115993417#2 115993417#1 115993417#0"/>
    </vehicle>

    <vehicle id="7" depart="7.00">
        <route edges="236667146#0 236667146#1 236667146#2 236667146#3"/>
    </vehicle>    <vehicle id="8" depart="8.00">
        <route edges="-386286298#2 -386286298#1 -386286298#0 236667146#0 236667146#1 236667146#2 236667146#3 236667146#4 236667146#5 236667146#6 236667146#7"/>
    </vehicle>
    <vehicle id="9" depart="9.00">
        <route edges="386286298#5 386286298#6 -386286298#6 -386286298#5 -386286298#4 -386286298#3 -386286298#2 -386286298#1 -386286298#0 236667146#0 236667146#1 115993417#0 115993417#1 115993417#2 -115993417#2 -115993417#1"/>
    </vehicle>
    <vehicle id="10" depart="10.00">
        <route edges="386286298#5 386286298#6 -386286298#6 -386286298#5 -386286298#4 -386286298#3 -386286298#2 -386286298#1 -386286298#0 386286298#0 386286298#1 386286298#2 386286298#3"/>
    </vehicle>
    <vehicle id="11" depart="11.00">
        <route edges="-386286298#4 -386286298#3"/>
    </vehicle>
    <vehicle id="12" depart="12.00">
        <route edges="863269435#2 863269435#3 863269435#4 863269435#5 863269435#6 -863269435#6 -863269435#5 -863269435#4 -863269435#3 -863269435#2 -863269435#1 -863269435#0"/>
    </vehicle>
    <vehicle id="13" depart="13.00">
        <route edges="-115993743#1 -115993743#0 -236667146#6 -236667146#5 -236667146#4 -236667146#3 -236667146#2 -236667146#1 -236667146#0 386286298#0 386286298#1 386286298#2 386286298#3 386286298#4 386286298#5 386286298#6 -386286298#6 -386286298#5 -386286298#4 -386286298#3 -386286298#2"/>
    </vehicle>
    <vehicle id="14" depart="14.00">
        <route edges="41383664#4 41383664#5 -41383664#5 -41383664#4 -41383664#3 -41383664#2 -41383664#1 -41383664#0 -737745075#4 -737745075#3 -737745075#2 -737745075#1 -737745075#0 386286298#0 386286298#1"/>
    </vehicle>
    <vehicle id="15" depart="15.00">
        <route edges="386286298#5 386286298#6 -386286298#6 -386286298#5 -386286298#4 -386286298#3 -386286298#2 -386286298#1 -386286298#0 386286298#0 386286298#1 386286298#2 386286298#3"/>
    </vehicle>
    <vehicle id="16" depart="16.00">
        <route edges="-863269435#3 -863269435#2 -863269435#1 -863269435#0 863269435#0 863269435#1 863269435#2 863269435#3"/>
    </vehicle>
    <vehicle id="17" depart="17.00">
        <route edges="-386286298#6 -386286298#5 -386286298#4 -386286298#3 -386286298#2 -386286298#1 -386286298#0 236667146#0 236667146#1"/>
    </vehicle>
    <vehicle id="18" depart="18.00">
        <route edges="41383664#2 41383664#3 41383664#4 41383664#5 -41383664#5 -41383664#4 -41383664#3 -41383664#2 -41383664#1 -41383664#0 -737745075#4 -737745075#3 -737745075#2 -737745075#1 -737745075#0 386286298#0 386286298#1 386286298#2"/>
    </vehicle>
    <vehicle id="19" depart="19.00">
        <route edges="737745075#1 737745075#2 737745075#3 737745075#4 737745074 -737745074 -737745075#4 -737745075#3 -737745075#2 -737745075#1 -737745075#0 236667146#0 236667146#1 236667146#2 236667146#3 236667146#4 236667146#5 236667146#6 236667146#7"/>
    </vehicle>
    <vehicle id="20" depart="20.00">
        <route edges="386286298#3 386286298#4 386286298#5 386286298#6 -386286298#6 -386286298#5 -386286298#4 -386286298#3 -386286298#2 -386286298#1"/>
    </vehicle>
    <vehicle id="21" depart="21.00">
        <route edges="-386286298#2 -386286298#1 -386286298#0 737745075#0 737745075#1 737745075#2 737745075#3 737745075#4 41383664#0 41383664#1 41383664#2 41383664#3 41383664#4 41383664#5 -41383664#5 -41383664#4"/>
    </vehicle>
    <vehicle id="22" depart="22.00">
        <route edges="-115993743#1 -115993743#0 -236667146#6 -236667146#5 -236667146#4 -236667146#3 -236667146#2 -236667146#1 -236667146#0 386286298#0 386286298#1 386286298#2 386286298#3 386286298#4 386286298#5 386286298#6 -386286298#6 -386286298#5"/>
    </vehicle>
    <vehicle id="23" depart="23.00">
        <route edges="-115993743#1 -115993743#0 -236667146#6 -236667146#5 -236667146#4 -236667146#3 -236667146#2 -236667146#1 -236667146#0 737745075#0 737745075#1 737745075#2 737745075#3 737745075#4 41383664#0 41383664#1 41383664#2 41383664#3 41383664#4 41383664#5 -41383664#5 -41383664#4"/>
    </vehicle>
    <vehicle id="24" depart="24.00">
        <route edges="386286298#2 386286298#3 386286298#4 386286298#5 386286298#6 -386286298#6 -386286298#5 -386286298#4 -386286298#3 -386286298#2 -386286298#1 -386286298#0 -863269435#6 -863269435#5 -863269435#4 -863269435#3 -863269435#2 -863269435#1"/>
    </vehicle>
    <vehicle id="25" depart="25.00">
        <route edges="-386286298#5 -386286298#4"/>
    </vehicle>
    <vehicle id="26" depart="26.00">
        <route edges="-386286298#3 -386286298#2 -386286298#1 -386286298#0 -863269435#6 -863269435#5 -863269435#4 -863269435#3 -863269435#2 -863269435#1 -863269435#0 863269435#0 863269435#1"/>
    </vehicle>
    <vehicle id="27" depart="27.00">
        <route edges="386286298#2"/>
    </vehicle>
    <vehicle id="28" depart="28.00">
        <route edges="-386286298#1 -386286298#0 386286298#0 386286298#1 386286298#2 386286298#3"/>
    </vehicle>
    <vehicle id="29" depart="29.00">
        <route edges="-236667146#7 -236667146#6 -236667146#5 -236667146#4 -236667146#3 -236667146#2 -236667146#1 -236667146#0 -863269435#6 -863269435#5 -863269435#4 -863269435#3 -863269435#2"/>
    </vehicle>
    <vehicle id="30" depart="30.00">
        <route edges="863269435#5 863269435#6 386286298#0 386286298#1 386286298#2"/>
    </vehicle>
    <vehicle id="31" depart="31.00">
        <route edges="-863269435#5 -863269435#4 -863269435#3 -863269435#2 -863269435#1 -863269435#0 863269435#0 863269435#1 863269435#2 863269435#3 863269435#4 863269435#5 863269435#6 386286298#0 386286298#1 386286298#2 386286298#3"/>
    </vehicle>
    <vehicle id="32" depart="32.00">
        <route edges="41383664#4 41383664#5 -41383664#5 -41383664#4 -41383664#3 -41383664#2 -41383664#1 -41383664#0 -737745075#4 -737745075#3 -737745075#2 -737745075#1 -737745075#0 386286298#0 386286298#1 386286298#2 386286298#3 386286298#4"/>
    </vehicle>
    <vehicle id="33" depart="33.00">
        <route edges="-386286298#2 -386286298#1 -386286298#0 236667146#0 236667146#1 236667146#2 236667146#3 236667146#4 236667146#5 236667146#6 236667146#7 -236667146#7 -236667146#6 -236667146#5 -236667146#4 -236667146#3"/>
    </vehicle>
    <vehicle id="34" depart="34.00">
        <route edges="-386286298#4 -386286298#3 -386286298#2 -386286298#1 -386286298#0 737745075#0 737745075#1 737745075#2 737745075#3 737745075#4 41383664#0 41383664#1 41383664#2 41383664#3 41383664#4 41383664#5 -41383664#5 -41383664#4 -41383664#3 -41383664#2"/>
    </vehicle>
    <vehicle id="35" depart="35.00">
        <route edges="-386286298#2 -386286298#1 -386286298#0 -863269435#6 -863269435#5 -863269435#4 -863269435#3 -863269435#2 -863269435#1 -863269435#0 863269435#0 863269435#1 863269435#2"/>
    </vehicle>
    <vehicle id="36" depart="36.00">
        <route edges="737745075#2 737745075#3 737745075#4 737745074 -737745074 -737745075#4 -737745075#3 -737745075#2"/>
    </vehicle>
    <vehicle id="37" depart="37.00">
        <route edges="386286298#2 386286298#3 386286298#4 386286298#5 386286298#6 -386286298#6 -386286298#5 -386286298#4 -386286298#3 -386286298#2 -386286298#1 -386286298#0 -863269435#6 -863269435#5 -863269435#4 -863269435#3 -863269435#2"/>
    </vehicle>
    <vehicle id="38" depart="38.00">
        <route edges="863269435#0 863269435#1 863269435#2 863269435#3 863269435#4 863269435#5 863269435#6 236667146#0 236667146#1 115993417#0 115993417#1 115993417#2"/>
    </vehicle>
    <vehicle id="39" depart="39.00">
        <route edges="-386286298#3 -386286298#2 -386286298#1 -386286298#0 386286298#0 386286298#1 386286298#2 386286298#3 386286298#4 386286298#5 386286298#6 -386286298#6 -386286298#5"/>
    </vehicle>
    <vehicle id="40" depart="40.00">
        <route edges="-863269435#5 -863269435#4 -863269435#3 -863269435#2 -863269435#1 -863269435#0 863269435#0 863269435#1 863269435#2 863269435#3 863269435#4 863269435#5 863269435#6 737745075#0 737745075#1 737745075#2 737745075#3 737745075#4 41383664#0 41383664#1 41383664#2 41383664#3 41383664#4 41383664#5 -41383664#5 -41383664#4 -41383664#3 -41383664#2"/>
    </vehicle>
    <vehicle id="41" depart="41.00">
        <route edges="236667146#1 -236667146#1 -236667146#0 737745075#0 737745075#1 737745075#2"/>
    </vehicle>
    <vehicle id="42" depart="42.00">
        <route edges="-41383664#2 -41383664#1 -41383664#0 -737745075#4 -737745075#3 -737745075#2 -737745075#1 -737745075#0 386286298#0 386286298#1 386286298#2 386286298#3 386286298#4 386286298#5 386286298#6 -386286298#6 -386286298#5 -386286298#4"/>
    </vehicle>
    <vehicle id="43" depart="43.00">
        <route edges="863269435#5 863269435#6 236667146#0 236667146#1 236667146#2 236667146#3 236667146#4 236667146#5 236667146#6 115993743#0 115993743#1"/>
    </vehicle>
    <vehicle id="44" depart="44.00">
        <route edges="-115993743#1 -115993743#0 -236667146#6 -236667146#5 -236667146#4 -236667146#3 -236667146#2 -236667146#1 -236667146#0 386286298#0 386286298#1 386286298#2 386286298#3 386286298#4 386286298#5 386286298#6 -386286298#6 -386286298#5 -386286298#4 -386286298#3 -386286298#2 -386286298#1"/>
    </vehicle>
    <vehicle id="45" depart="45.00">
        <route edges="-115993743#1 -115993743#0 -236667146#6 -236667146#5 -236667146#4 -236667146#3 -236667146#2 -236667146#1 -236667146#0 386286298#0 386286298#1 386286298#2"/>
    </vehicle>
    <vehicle id="46" depart="46.00">
        <route edges="386286298#5 386286298#6 -386286298#6 -386286298#5 -386286298#4 -386286298#3 -386286298#2 -386286298#1 -386286298#0 -863269435#6 -863269435#5"/>
    </vehicle>
    <vehicle id="47" depart="47.00">
        <route edges="-115993743#1 -115993743#0 -236667146#6 -236667146#5 -236667146#4 -236667146#3 -236667146#2 -236667146#1 -236667146#0 -863269435#6 -863269435#5 -863269435#4 -863269435#3 -863269435#2"/>
    </vehicle>
    <vehicle id="48" depart="48.00">
        <route edges="863269435#5 863269435#6 236667146#0 236667146#1 236667146#2 236667146#3 236667146#4 236667146#5 236667146#6 115993743#0 115993743#1"/>
    </vehicle>
    <vehicle id="49" depart="49.00">
        <route edges="863269435#3 863269435#4 863269435#5 863269435#6 737745075#0 737745075#1 737745075#2 737745075#3 737745075#4 41383664#0 41383664#1 41383664#2 41383664#3 41383664#4 41383664#5"/>
    </vehicle>
</routes>
