<?xml version="1.0" encoding="UTF-8"?>

<!-- generated on 2025-02-21 22:26:33 by Eclipse SUMO netconvert Version 1.22.0
<netconvertConfiguration xmlns:xsi="http://www.w3.org/2001/XMLSchema-instance" xsi:noNamespaceSchemaLocation="http://sumo.dlr.de/xsd/netconvertConfiguration.xsd">

    <input>
        <osm-files value="map.osm"/>
    </input>

    <output>
        <output-file value="map.net.xml"/>
    </output>

    <projection>
        <proj.utm value="true"/>
    </projection>

</netconvertConfiguration>
-->

<net version="1.20" junctionCornerDetail="5" limitTurnSpeed="5.50" xmlns:xsi="http://www.w3.org/2001/XMLSchema-instance" xsi:noNamespaceSchemaLocation="http://sumo.dlr.de/xsd/net_file.xsd">

    <location netOffset="-387663.49,-3953389.19" convBoundary="0.00,0.00,1961.44,2528.28" origBoundary="139.757821,35.718135,139.779354,35.741076" projParameter="+proj=utm +zone=54 +ellps=WGS84 +datum=WGS84 +units=m +no_defs"/>

    <type id="highway.footway" priority="1" numLanes="1" speed="2.78" allow="pedestrian" oneway="1" width="2.00"/>
    <type id="highway.path" priority="1" numLanes="1" speed="5.56" allow="pedestrian bicycle" oneway="0" width="2.00"/>
    <type id="highway.residential" priority="3" numLanes="1" speed="13.89" disallow="tram rail_urban rail rail_electric rail_fast ship container cable_car subway aircraft wheelchair scooter drone" oneway="0"/>
    <type id="highway.secondary" priority="11" numLanes="1" speed="27.78" disallow="tram rail_urban rail rail_electric rail_fast ship container cable_car subway aircraft wheelchair scooter drone" oneway="0"/>
    <type id="highway.service" priority="1" numLanes="1" speed="5.56" allow="pedestrian delivery bicycle" oneway="0"/>
    <type id="highway.unclassified" priority="4" numLanes="1" speed="13.89" disallow="tram rail_urban rail rail_electric rail_fast ship container cable_car subway aircraft wheelchair scooter drone" oneway="0"/>
    <type id="railway.subway" priority="18" numLanes="1" speed="27.78" allow="subway" oneway="1"/>

    <edge id=":1106225298_0" function="internal">
        <lane id=":1106225298_0_0" index="0" disallow="tram rail_urban rail rail_electric rail_fast ship container cable_car subway aircraft wheelchair scooter drone" speed="3.65" length="4.67" shape="376.83,347.67 377.68,346.50 378.49,346.14 379.28,346.57 380.02,347.81"/>
    </edge>
    <edge id=":1138791157_0" function="internal">
        <lane id=":1138791157_0_0" index="0" disallow="tram rail_urban rail rail_electric rail_fast ship container cable_car subway aircraft wheelchair scooter drone" speed="5.32" length="5.99" shape="569.54,721.90 569.05,720.85 568.03,720.27 566.48,720.16 564.41,720.52"/>
    </edge>
    <edge id=":1138791157_1" function="internal">
        <lane id=":1138791157_1_0" index="0" disallow="tram rail_urban rail rail_electric rail_fast ship container cable_car subway aircraft wheelchair scooter drone" speed="7.58" length="11.78" shape="569.54,721.90 569.61,719.27 570.81,717.08 573.15,715.32 576.63,714.01"/>
    </edge>
    <edge id=":1138791157_2" function="internal">
        <lane id=":1138791157_2_0" index="0" disallow="tram rail_urban rail rail_electric rail_fast ship container cable_car subway aircraft wheelchair scooter drone" speed="3.65" length="1.44" shape="569.54,721.90 570.12,720.58"/>
    </edge>
    <edge id=":1138791157_9" function="internal">
        <lane id=":1138791157_9_0" index="0" disallow="tram rail_urban rail rail_electric rail_fast ship container cable_car subway aircraft wheelchair scooter drone" speed="3.65" length="3.23" shape="570.12,720.58 570.84,720.04 571.70,720.29 572.69,721.34"/>
    </edge>
    <edge id=":1138791157_3" function="internal">
        <lane id=":1138791157_3_0" index="0" disallow="tram rail_urban rail rail_electric rail_fast ship container cable_car subway aircraft wheelchair scooter drone" speed="5.99" length="6.99" shape="577.47,717.10 575.19,717.90 573.64,718.87 572.80,720.02 572.69,721.34"/>
    </edge>
    <edge id=":1138791157_4" function="internal">
        <lane id=":1138791157_4_0" index="0" disallow="tram rail_urban rail rail_electric rail_fast ship container cable_car subway aircraft wheelchair scooter drone" speed="8.33" length="13.50" shape="577.47,717.10 564.41,720.52"/>
    </edge>
    <edge id=":1138791157_5" function="internal">
        <lane id=":1138791157_5_0" index="0" disallow="tram rail_urban rail rail_electric rail_fast ship container cable_car subway aircraft wheelchair scooter drone" speed="3.65" length="1.44" shape="577.47,717.10 576.10,716.64"/>
    </edge>
    <edge id=":1138791157_10" function="internal">
        <lane id=":1138791157_10_0" index="0" disallow="tram rail_urban rail rail_electric rail_fast ship container cable_car subway aircraft wheelchair scooter drone" speed="3.65" length="3.23" shape="576.10,716.64 575.51,715.97 575.68,715.09 576.63,714.01"/>
    </edge>
    <edge id=":1138791157_6" function="internal">
        <lane id=":1138791157_6_0" index="0" disallow="tram rail_urban rail rail_electric rail_fast ship container cable_car subway aircraft wheelchair scooter drone" speed="8.33" length="13.45" shape="563.62,717.41 576.63,714.01"/>
    </edge>
    <edge id=":1138791157_7" function="internal">
        <lane id=":1138791157_7_0" index="0" disallow="tram rail_urban rail rail_electric rail_fast ship container cable_car subway aircraft wheelchair scooter drone" speed="7.05" length="4.21" shape="563.62,717.41 567.19,716.90 567.79,717.01"/>
    </edge>
    <edge id=":1138791157_8" function="internal">
        <lane id=":1138791157_8_0" index="0" disallow="tram rail_urban rail rail_electric rail_fast ship container cable_car subway aircraft wheelchair scooter drone" speed="3.65" length="1.44" shape="563.62,717.41 564.98,717.90"/>
    </edge>
    <edge id=":1138791157_11" function="internal">
        <lane id=":1138791157_11_0" index="0" disallow="tram rail_urban rail rail_electric rail_fast ship container cable_car subway aircraft wheelchair scooter drone" speed="7.05" length="7.15" shape="567.79,717.01 569.90,717.38 571.73,718.86 572.69,721.34"/>
    </edge>
    <edge id=":1138791157_12" function="internal">
        <lane id=":1138791157_12_0" index="0" disallow="tram rail_urban rail rail_electric rail_fast ship container cable_car subway aircraft wheelchair scooter drone" speed="3.65" length="3.23" shape="564.98,717.90 565.57,718.57 565.38,719.45 564.41,720.52"/>
    </edge>
    <edge id=":1138791234_0" function="internal">
        <lane id=":1138791234_0_0" index="0" disallow="tram rail_urban rail rail_electric rail_fast ship container cable_car subway aircraft wheelchair scooter drone" speed="3.65" length="4.67" shape="522.80,966.27 522.31,967.63 521.63,968.21 520.75,968.01 519.69,967.04"/>
    </edge>
    <edge id=":1138791395_0" function="internal">
        <lane id=":1138791395_0_0" index="0" allow="pedestrian delivery bicycle" speed="3.65" length="4.67" shape="594.35,743.53 595.15,744.73 595.22,745.62 594.54,746.21 593.13,746.49"/>
    </edge>
    <edge id=":1142018303_0" function="internal">
        <lane id=":1142018303_0_0" index="0" disallow="tram rail_urban rail rail_electric rail_fast ship container cable_car subway aircraft wheelchair scooter drone" speed="3.65" length="4.67" shape="303.30,781.01 302.14,780.17 301.77,779.35 302.20,778.57 303.43,777.82"/>
    </edge>
    <edge id=":1150465486_0" function="internal">
        <lane id=":1150465486_0_0" index="0" disallow="tram rail_urban rail rail_electric rail_fast ship container cable_car subway aircraft wheelchair scooter drone" speed="11.11" length="0.22" shape="382.75,358.71 382.74,358.89"/>
        <lane id=":1150465486_0_1" index="1" disallow="tram rail_urban rail rail_electric rail_fast ship container cable_car subway aircraft wheelchair scooter drone" speed="11.11" length="0.22" shape="379.55,358.57 379.54,358.82"/>
    </edge>
    <edge id=":1150465486_2" function="internal">
        <lane id=":1150465486_2_0" index="0" disallow="tram rail_urban rail rail_electric rail_fast ship container cable_car subway aircraft wheelchair scooter drone" speed="11.11" length="0.34" shape="373.15,358.66 373.16,358.29"/>
        <lane id=":1150465486_2_1" index="1" disallow="tram rail_urban rail rail_electric rail_fast ship container cable_car subway aircraft wheelchair scooter drone" speed="11.11" length="0.34" shape="376.34,358.74 376.35,358.43"/>
    </edge>
    <edge id=":1150467263_0" function="internal">
        <lane id=":1150467263_0_0" index="0" disallow="tram rail_urban rail rail_electric rail_fast ship container cable_car subway aircraft wheelchair scooter drone" speed="8.33" length="9.04" shape="559.88,721.66 551.11,723.83"/>
    </edge>
    <edge id=":1150467263_1" function="internal">
        <lane id=":1150467263_1_0" index="0" allow="pedestrian delivery bicycle" speed="6.45" length="3.36" shape="559.88,721.66 557.35,721.98 556.56,721.81"/>
    </edge>
    <edge id=":1150467263_7" function="internal">
        <lane id=":1150467263_7_0" index="0" allow="pedestrian delivery bicycle" speed="6.45" length="5.32" shape="556.56,721.81 555.35,721.54 553.89,720.33 552.96,718.35"/>
    </edge>
    <edge id=":1150467263_2" function="internal">
        <lane id=":1150467263_2_0" index="0" allow="pedestrian delivery bicycle" speed="4.47" length="3.63" shape="556.04,717.49 556.41,718.20 557.05,718.61 557.94,718.73 559.10,718.55"/>
    </edge>
    <edge id=":1150467263_3" function="internal">
        <lane id=":1150467263_3_0" index="0" allow="pedestrian delivery bicycle" speed="6.48" length="9.18" shape="556.04,717.49 556.24,719.69 555.48,721.48 553.77,722.86 551.11,723.83"/>
    </edge>
    <edge id=":1150467263_4" function="internal">
        <lane id=":1150467263_4_0" index="0" allow="pedestrian delivery bicycle" speed="3.65" length="4.67" shape="556.04,717.49 555.60,718.86 554.93,719.46 554.05,719.29 552.96,718.35"/>
    </edge>
    <edge id=":1150467263_5" function="internal">
        <lane id=":1150467263_5_0" index="0" allow="pedestrian delivery bicycle" speed="4.53" length="3.94" shape="550.35,720.72 551.66,720.29 552.53,719.76 552.97,719.11 552.96,718.35"/>
    </edge>
    <edge id=":1150467263_6" function="internal">
        <lane id=":1150467263_6_0" index="0" disallow="tram rail_urban rail rail_electric rail_fast ship container cable_car subway aircraft wheelchair scooter drone" speed="8.33" length="9.01" shape="550.35,720.72 559.10,718.55"/>
    </edge>
    <edge id=":1150467346_0" function="internal">
        <lane id=":1150467346_0_0" index="0" disallow="tram rail_urban rail rail_electric rail_fast ship container cable_car subway aircraft wheelchair scooter drone" speed="3.65" length="4.67" shape="578.16,713.60 579.52,714.05 580.12,714.72 579.94,715.60 578.99,716.69"/>
    </edge>
    <edge id=":1309139907_0" function="internal">
        <lane id=":1309139907_0_0" index="0" disallow="tram rail_urban rail rail_electric rail_fast ship container cable_car subway aircraft wheelchair scooter drone" speed="11.11" length="0.22" shape="396.31,491.92 396.27,491.73"/>
        <lane id=":1309139907_0_1" index="1" disallow="tram rail_urban rail rail_electric rail_fast ship container cable_car subway aircraft wheelchair scooter drone" speed="11.11" length="0.22" shape="399.43,491.21 399.38,490.96"/>
    </edge>
    <edge id=":1309139907_2" function="internal">
        <lane id=":1309139907_2_0" index="0" disallow="tram rail_urban rail rail_electric rail_fast ship container cable_car subway aircraft wheelchair scooter drone" speed="11.11" length="0.34" shape="405.59,489.43 405.67,489.79"/>
        <lane id=":1309139907_2_1" index="1" disallow="tram rail_urban rail rail_electric rail_fast ship container cable_car subway aircraft wheelchair scooter drone" speed="11.11" length="0.34" shape="402.48,490.20 402.55,490.50"/>
    </edge>
    <edge id=":1309139968_0" function="internal">
        <lane id=":1309139968_0_0" index="0" allow="pedestrian delivery bicycle" speed="3.65" length="4.67" shape="512.26,595.32 512.68,593.94 513.33,593.33 514.21,593.48 515.32,594.40"/>
    </edge>
    <edge id=":1309140031_0" function="internal">
        <lane id=":1309140031_0_0" index="0" allow="pedestrian delivery bicycle" speed="3.65" length="4.67" shape="440.04,552.61 440.55,551.27 441.24,550.70 442.11,550.91 443.16,551.91"/>
    </edge>
    <edge id=":1309140269_0" function="internal">
        <lane id=":1309140269_0_0" index="0" disallow="tram rail_urban rail rail_electric rail_fast ship container cable_car subway aircraft wheelchair scooter drone" speed="27.78" length="14.88" shape="371.29,783.32 356.42,782.91"/>
    </edge>
    <edge id=":1309140269_1" function="internal">
        <lane id=":1309140269_1_0" index="0" disallow="tram rail_urban rail rail_electric rail_fast ship container cable_car subway aircraft wheelchair scooter drone" speed="8.73" length="4.10" shape="371.29,783.32 367.96,782.85 367.29,782.54"/>
    </edge>
    <edge id=":1309140269_2" function="internal">
        <lane id=":1309140269_2_0" index="0" disallow="tram rail_urban rail rail_electric rail_fast ship container cable_car subway aircraft wheelchair scooter drone" speed="3.65" length="1.44" shape="371.29,783.32 370.11,782.49"/>
    </edge>
    <edge id=":1309140269_9" function="internal">
        <lane id=":1309140269_9_0" index="0" disallow="tram rail_urban rail rail_electric rail_fast ship container cable_car subway aircraft wheelchair scooter drone" speed="8.73" length="8.21" shape="367.29,782.54 365.26,781.61 363.20,779.61 361.76,776.85"/>
    </edge>
    <edge id=":1309140269_10" function="internal">
        <lane id=":1309140269_10_0" index="0" disallow="tram rail_urban rail rail_electric rail_fast ship container cable_car subway aircraft wheelchair scooter drone" speed="3.65" length="3.23" shape="370.11,782.49 369.73,781.68 370.15,780.89 371.37,780.12"/>
    </edge>
    <edge id=":1309140269_3" function="internal">
        <lane id=":1309140269_3_0" index="0" disallow="tram rail_urban rail rail_electric rail_fast ship container cable_car subway aircraft wheelchair scooter drone" speed="7.24" length="8.23" shape="364.86,776.01 365.80,777.76 367.20,779.03 369.05,779.82 371.37,780.12"/>
    </edge>
    <edge id=":1309140269_4" function="internal">
        <lane id=":1309140269_4_0" index="0" disallow="tram rail_urban rail rail_electric rail_fast ship container cable_car subway aircraft wheelchair scooter drone" speed="6.99" length="13.59" shape="364.86,776.01 365.30,779.15 364.03,781.34 361.07,782.60 356.42,782.91"/>
    </edge>
    <edge id=":1309140269_5" function="internal">
        <lane id=":1309140269_5_0" index="0" disallow="tram rail_urban rail rail_electric rail_fast ship container cable_car subway aircraft wheelchair scooter drone" speed="3.65" length="4.69" shape="364.86,776.01 364.40,777.38 363.73,777.98 362.86,777.80 361.76,776.85"/>
    </edge>
    <edge id=":1309140269_6" function="internal">
        <lane id=":1309140269_6_0" index="0" disallow="tram rail_urban rail rail_electric rail_fast ship container cable_car subway aircraft wheelchair scooter drone" speed="5.27" length="7.13" shape="356.51,779.71 359.21,779.60 360.99,779.09 361.84,778.17 361.76,776.85"/>
    </edge>
    <edge id=":1309140269_7" function="internal">
        <lane id=":1309140269_7_0" index="0" disallow="tram rail_urban rail rail_electric rail_fast ship container cable_car subway aircraft wheelchair scooter drone" speed="27.78" length="14.87" shape="356.51,779.71 371.37,780.12"/>
    </edge>
    <edge id=":1309140269_8" function="internal">
        <lane id=":1309140269_8_0" index="0" disallow="tram rail_urban rail rail_electric rail_fast ship container cable_car subway aircraft wheelchair scooter drone" speed="3.65" length="1.44" shape="356.51,779.71 357.69,780.54"/>
    </edge>
    <edge id=":1309140269_11" function="internal">
        <lane id=":1309140269_11_0" index="0" disallow="tram rail_urban rail rail_electric rail_fast ship container cable_car subway aircraft wheelchair scooter drone" speed="3.65" length="3.23" shape="357.69,780.54 358.06,781.36 357.64,782.14 356.42,782.91"/>
    </edge>
    <edge id=":1309140322_0" function="internal">
        <lane id=":1309140322_0_0" index="0" allow="pedestrian delivery bicycle" speed="4.40" length="4.06" shape="414.95,772.95 414.51,772.34 413.77,772.14 412.73,772.35 411.40,772.99"/>
    </edge>
    <edge id=":1309140322_1" function="internal">
        <lane id=":1309140322_1_0" index="0" allow="pedestrian delivery bicycle" speed="6.82" length="9.00" shape="414.95,772.95 414.54,770.70 414.97,768.72 416.25,767.02 418.37,765.60"/>
    </edge>
    <edge id=":1309140322_2" function="internal">
        <lane id=":1309140322_2_0" index="0" allow="pedestrian delivery bicycle" speed="3.65" length="4.68" shape="414.95,772.95 415.24,771.54 415.84,770.87 416.73,770.95 417.92,771.77"/>
    </edge>
    <edge id=":1309140322_3" function="internal">
        <lane id=":1309140322_3_0" index="0" allow="pedestrian delivery bicycle" speed="4.91" length="4.21" shape="419.81,768.45 418.72,769.15 418.05,769.93 417.78,770.81 417.92,771.77"/>
    </edge>
    <edge id=":1309140322_4" function="internal">
        <lane id=":1309140322_4_0" index="0" disallow="tram rail_urban rail rail_electric rail_fast ship container cable_car subway aircraft wheelchair scooter drone" speed="27.78" length="9.56" shape="419.81,768.45 411.40,772.99"/>
    </edge>
    <edge id=":1309140322_5" function="internal">
        <lane id=":1309140322_5_0" index="0" disallow="tram rail_urban rail rail_electric rail_fast ship container cable_car subway aircraft wheelchair scooter drone" speed="27.78" length="9.72" shape="409.82,770.21 418.37,765.60"/>
    </edge>
    <edge id=":1309140322_6" function="internal">
        <lane id=":1309140322_6_0" index="0" allow="pedestrian delivery bicycle" speed="6.36" length="4.06" shape="409.82,770.21 412.69,768.96 413.62,768.90"/>
    </edge>
    <edge id=":1309140322_7" function="internal">
        <lane id=":1309140322_7_0" index="0" allow="pedestrian delivery bicycle" speed="6.36" length="5.71" shape="413.62,768.90 415.00,768.80 416.75,769.74 417.92,771.77"/>
    </edge>
    <edge id=":1309140332_0" function="internal">
        <lane id=":1309140332_0_0" index="0" disallow="tram rail_urban rail rail_electric rail_fast ship container cable_car subway aircraft wheelchair scooter drone" speed="13.89" length="3.36" shape="423.78,759.43 423.39,758.51 423.17,757.87 422.98,757.21 422.68,756.26"/>
    </edge>
    <edge id=":1309140332_1" function="internal">
        <lane id=":1309140332_1_0" index="0" disallow="tram rail_urban rail rail_electric rail_fast ship container cable_car subway aircraft wheelchair scooter drone" speed="13.89" length="3.07" shape="425.70,755.22 425.98,756.08 426.15,756.68 426.34,757.28 426.69,758.12"/>
    </edge>
    <edge id=":1309140399_0" function="internal">
        <lane id=":1309140399_0_0" index="0" disallow="tram rail_urban rail rail_electric rail_fast ship container cable_car subway aircraft wheelchair scooter drone" speed="3.65" length="4.67" shape="397.96,676.54 398.40,675.17 399.06,674.57 399.94,674.73 401.04,675.67"/>
    </edge>
    <edge id=":1309140462_0" function="internal">
        <lane id=":1309140462_0_0" index="0" disallow="tram rail_urban rail rail_electric rail_fast ship container cable_car subway aircraft wheelchair scooter drone" speed="11.11" length="0.54" shape="377.74,414.24 377.62,413.62"/>
        <lane id=":1309140462_0_1" index="1" disallow="tram rail_urban rail rail_electric rail_fast ship container cable_car subway aircraft wheelchair scooter drone" speed="11.11" length="0.54" shape="380.86,413.52 380.77,413.08"/>
    </edge>
    <edge id=":1309140462_2" function="internal">
        <lane id=":1309140462_2_0" index="0" disallow="tram rail_urban rail rail_electric rail_fast ship container cable_car subway aircraft wheelchair scooter drone" speed="11.11" length="0.18" shape="387.08,411.99 387.10,412.08"/>
        <lane id=":1309140462_2_1" index="1" disallow="tram rail_urban rail rail_electric rail_fast ship container cable_car subway aircraft wheelchair scooter drone" speed="11.11" length="0.18" shape="383.92,412.54 383.98,412.80"/>
    </edge>
    <edge id=":1309140485_0" function="internal">
        <lane id=":1309140485_0_0" index="0" disallow="tram rail_urban rail rail_electric rail_fast ship container cable_car subway aircraft wheelchair scooter drone" speed="8.33" length="9.38" shape="495.35,737.48 486.25,739.74"/>
    </edge>
    <edge id=":1309140485_1" function="internal">
        <lane id=":1309140485_1_0" index="0" allow="pedestrian delivery bicycle" speed="6.44" length="3.71" shape="495.35,737.48 492.68,737.86 491.68,737.71"/>
    </edge>
    <edge id=":1309140485_7" function="internal">
        <lane id=":1309140485_7_0" index="0" allow="pedestrian delivery bicycle" speed="6.44" length="4.84" shape="491.68,737.71 490.60,737.54 489.11,736.51 488.22,734.79"/>
    </edge>
    <edge id=":1309140485_2" function="internal">
        <lane id=":1309140485_2_0" index="0" allow="pedestrian delivery bicycle" speed="4.47" length="3.60" shape="491.29,733.91 491.63,734.38 492.29,734.62 493.27,734.62 494.59,734.37"/>
    </edge>
    <edge id=":1309140485_3" function="internal">
        <lane id=":1309140485_3_0" index="0" allow="pedestrian delivery bicycle" speed="6.35" length="8.77" shape="491.29,733.91 491.44,735.87 490.64,737.50 488.91,738.79 486.25,739.74"/>
    </edge>
    <edge id=":1309140485_4" function="internal">
        <lane id=":1309140485_4_0" index="0" allow="pedestrian delivery bicycle" speed="3.65" length="4.67" shape="491.29,733.91 490.86,735.28 490.20,735.89 489.32,735.72 488.22,734.79"/>
    </edge>
    <edge id=":1309140485_5" function="internal">
        <lane id=":1309140485_5_0" index="0" allow="pedestrian delivery bicycle" speed="4.37" length="3.58" shape="485.47,736.64 486.79,736.23 487.69,735.79 488.16,735.31 488.22,734.79"/>
    </edge>
    <edge id=":1309140485_6" function="internal">
        <lane id=":1309140485_6_0" index="0" disallow="tram rail_urban rail rail_electric rail_fast ship container cable_car subway aircraft wheelchair scooter drone" speed="8.33" length="9.39" shape="485.47,736.64 494.59,734.37"/>
    </edge>
    <edge id=":1309140580_0" function="internal">
        <lane id=":1309140580_0_0" index="0" allow="pedestrian delivery bicycle" speed="4.46" length="3.63" shape="507.81,933.13 507.41,931.85 506.94,930.97 506.42,930.50 505.83,930.44"/>
    </edge>
    <edge id=":1309140580_1" function="internal">
        <lane id=":1309140580_1_0" index="0" disallow="tram rail_urban rail rail_electric rail_fast ship container cable_car subway aircraft wheelchair scooter drone" speed="11.11" length="9.40" shape="507.81,933.13 505.50,924.01"/>
        <lane id=":1309140580_1_1" index="1" disallow="tram rail_urban rail rail_electric rail_fast ship container cable_car subway aircraft wheelchair scooter drone" speed="11.11" length="9.40" shape="510.91,932.34 508.61,923.22"/>
    </edge>
    <edge id=":1309140580_3" function="internal">
        <lane id=":1309140580_3_0" index="0" disallow="tram rail_urban rail rail_electric rail_fast ship container cable_car subway aircraft wheelchair scooter drone" speed="11.11" length="9.41" shape="514.81,921.65 517.12,930.78"/>
        <lane id=":1309140580_3_1" index="1" disallow="tram rail_urban rail rail_electric rail_fast ship container cable_car subway aircraft wheelchair scooter drone" speed="11.11" length="9.41" shape="511.71,922.44 514.02,931.56"/>
    </edge>
    <edge id=":1309140580_5" function="internal">
        <lane id=":1309140580_5_0" index="0" allow="pedestrian delivery bicycle" speed="7.16" length="3.12" shape="511.71,922.44 511.94,925.30 511.85,925.54"/>
    </edge>
    <edge id=":1309140580_9" function="internal">
        <lane id=":1309140580_9_0" index="0" allow="pedestrian delivery bicycle" speed="7.16" length="8.23" shape="511.85,925.54 511.04,927.59 509.00,929.30 505.83,930.44"/>
    </edge>
    <edge id=":1309140580_6" function="internal">
        <lane id=":1309140580_6_0" index="0" allow="pedestrian delivery bicycle" speed="4.39" length="3.61" shape="505.13,927.32 505.58,927.01 505.80,926.36 505.77,925.36 505.50,924.01"/>
    </edge>
    <edge id=":1309140580_7" function="internal">
        <lane id=":1309140580_7_0" index="0" allow="pedestrian delivery bicycle" speed="7.22" length="11.14" shape="505.13,927.32 508.45,926.95 511.05,927.54 512.90,929.07 514.02,931.56"/>
    </edge>
    <edge id=":1309140580_8" function="internal">
        <lane id=":1309140580_8_0" index="0" allow="pedestrian delivery bicycle" speed="3.65" length="4.67" shape="505.13,927.32 506.47,927.83 507.04,928.52 506.83,929.39 505.83,930.44"/>
    </edge>
    <edge id=":1309140684_0" function="internal">
        <lane id=":1309140684_0_0" index="0" allow="pedestrian delivery bicycle" speed="3.65" length="4.67" shape="374.84,841.43 375.92,842.37 376.22,843.22 375.72,843.96 374.43,844.60"/>
    </edge>
    <edge id=":1309140712_0" function="internal">
        <lane id=":1309140712_0_0" index="0" disallow="tram rail_urban rail rail_electric rail_fast ship container cable_car subway aircraft wheelchair scooter drone" speed="11.11" length="0.24" shape="423.40,597.45 423.34,597.24"/>
        <lane id=":1309140712_0_1" index="1" disallow="tram rail_urban rail rail_electric rail_fast ship container cable_car subway aircraft wheelchair scooter drone" speed="11.11" length="0.24" shape="426.50,596.68 426.44,596.42"/>
    </edge>
    <edge id=":1309140712_2" function="internal">
        <lane id=":1309140712_2_0" index="0" disallow="tram rail_urban rail rail_electric rail_fast ship container cable_car subway aircraft wheelchair scooter drone" speed="11.11" length="0.34" shape="432.62,594.79 432.71,595.13"/>
        <lane id=":1309140712_2_1" index="1" disallow="tram rail_urban rail rail_electric rail_fast ship container cable_car subway aircraft wheelchair scooter drone" speed="11.11" length="0.34" shape="429.53,595.60 429.61,595.91"/>
    </edge>
    <edge id=":1852831535_0" function="internal">
        <lane id=":1852831535_0_0" index="0" disallow="tram rail_urban rail rail_electric rail_fast ship container cable_car subway aircraft wheelchair scooter drone" speed="27.78" length="14.52" shape="434.42,760.87 421.54,767.58"/>
    </edge>
    <edge id=":1852831535_1" function="internal">
        <lane id=":1852831535_1_0" index="0" disallow="tram rail_urban rail rail_electric rail_fast ship container cable_car subway aircraft wheelchair scooter drone" speed="7.28" length="4.88" shape="434.42,760.87 430.74,762.41 429.86,762.50"/>
    </edge>
    <edge id=":1852831535_2" function="internal">
        <lane id=":1852831535_2_0" index="0" disallow="tram rail_urban rail rail_electric rail_fast ship container cable_car subway aircraft wheelchair scooter drone" speed="3.65" length="1.44" shape="434.42,760.87 432.99,760.73"/>
    </edge>
    <edge id=":1852831535_9" function="internal">
        <lane id=":1852831535_9_0" index="0" disallow="tram rail_urban rail rail_electric rail_fast ship container cable_car subway aircraft wheelchair scooter drone" speed="7.28" length="7.29" shape="429.86,762.50 427.75,762.71 425.46,761.78 423.86,759.61"/>
    </edge>
    <edge id=":1852831535_10" function="internal">
        <lane id=":1852831535_10_0" index="0" disallow="tram rail_urban rail rail_electric rail_fast ship container cable_car subway aircraft wheelchair scooter drone" speed="3.65" length="3.23" shape="432.99,760.73 432.26,760.21 432.23,759.32 432.91,758.05"/>
    </edge>
    <edge id=":1852831535_3" function="internal">
        <lane id=":1852831535_3_0" index="0" disallow="tram rail_urban rail rail_electric rail_fast ship container cable_car subway aircraft wheelchair scooter drone" speed="5.63" length="6.83" shape="426.78,758.30 427.57,759.20 428.86,759.46 430.64,759.08 432.91,758.05"/>
    </edge>
    <edge id=":1852831535_4" function="internal">
        <lane id=":1852831535_4_0" index="0" disallow="tram rail_urban rail rail_electric rail_fast ship container cable_car subway aircraft wheelchair scooter drone" speed="7.50" length="11.92" shape="426.78,758.30 427.36,760.91 426.68,763.32 424.74,765.54 421.54,767.58"/>
    </edge>
    <edge id=":1852831535_5" function="internal">
        <lane id=":1852831535_5_0" index="0" disallow="tram rail_urban rail rail_electric rail_fast ship container cable_car subway aircraft wheelchair scooter drone" speed="3.65" length="4.67" shape="426.78,758.30 426.54,759.72 425.97,760.41 425.08,760.38 423.86,759.61"/>
    </edge>
    <edge id=":1852831535_6" function="internal">
        <lane id=":1852831535_6_0" index="0" disallow="tram rail_urban rail rail_electric rail_fast ship container cable_car subway aircraft wheelchair scooter drone" speed="5.90" length="6.98" shape="420.10,764.72 422.18,763.47 423.51,762.20 424.06,760.91 423.86,759.61"/>
    </edge>
    <edge id=":1852831535_7" function="internal">
        <lane id=":1852831535_7_0" index="0" disallow="tram rail_urban rail rail_electric rail_fast ship container cable_car subway aircraft wheelchair scooter drone" speed="27.78" length="14.45" shape="420.10,764.72 432.91,758.05"/>
    </edge>
    <edge id=":1852831535_8" function="internal">
        <lane id=":1852831535_8_0" index="0" disallow="tram rail_urban rail rail_electric rail_fast ship container cable_car subway aircraft wheelchair scooter drone" speed="3.65" length="1.44" shape="420.10,764.72 421.53,764.89"/>
    </edge>
    <edge id=":1852831535_11" function="internal">