<?xml version="1.0" encoding="UTF-8"?>
<additional>
    <rerouter id="rerouter_0" edges="386286298#3">
        <interval begin="0" end="2000">
            <!-- Empty initially - will be updated during simulation -->
        </interval>
    </rerouter>
</additional>