<?xml version="1.0" encoding="UTF-8"?>

<!-- generated on 2025-02-21 22:36:44.179850 by randomTrips.py v1_22_0+0002-63e50f52594
<configuration>
    <net-file value="map.net.xml"/>
    <route-file value="map.rou.xml"/>
    <length value="True"/>
    <end value="50.0"/>
</configuration>
-->

<routes xmlns:xsi="http://www.w3.org/2001/XMLSchema-instance" xsi:noNamespaceSchemaLocation="http://sumo.dlr.de/xsd/routes_file.xsd">
    <trip id="0" depart="0.00" from="386286298#2" to="-236667146#1"/>
    <trip id="1" depart="1.00" from="-386286298#3" to="-386286298#5"/>
    <trip id="2" depart="2.00" from="386286298#3" to="386286298#3"/>
    <trip id="3" depart="3.00" from="737745075#2" to="-386286298#2"/>
    <trip id="4" depart="4.00" from="-41383664#4" to="-236667146#1"/>
    <trip id="5" depart="5.00" from="-386286298#2" to="115993743#1"/>
    <trip id="6" depart="6.00" from="-115993417#2" to="-386286298#4"/>
    <trip id="7" depart="7.00" from="386286298#2" to="115993743#1"/>
    <trip id="8" depart="8.00" from="-386286298#2" to="236667146#7"/>
    <trip id="9" depart="9.00" from="386286298#5" to="-115993417#1"/>
    <trip id="10" depart="10.00" from="386286298#5" to="386286298#3"/>
    <trip id="11" depart="11.00" from="-386286298#4" to="-386286298#3"/>
    <trip id="12" depart="12.00" from="863269435#2" to="-863269435#0"/>
    <trip id="13" depart="13.00" from="-115993743#1" to="-386286298#2"/>
    <trip id="14" depart="14.00" from="41383664#4" to="386286298#1"/>
    <trip id="15" depart="15.00" from="386286298#5" to="386286298#3"/>
    <trip id="16" depart="16.00" from="-863269435#3" to="863269435#3"/>
    <trip id="17" depart="17.00" from="-386286298#6" to="236667146#1"/>
    <trip id="18" depart="18.00" from="41383664#2" to="386286298#2"/>
    <trip id="19" depart="19.00" from="737745075#1" to="236667146#7"/>
    <trip id="20" depart="20.00" from="386286298#3" to="-386286298#1"/>
    <trip id="21" depart="21.00" from="-386286298#2" to="-41383664#4"/>
    <trip id="22" depart="22.00" from="-115993743#1" to="-386286298#5"/>
    <trip id="23" depart="23.00" from="-115993743#1" to="-41383664#4"/>
    <trip id="24" depart="24.00" from="386286298#2" to="-863269435#1"/>
    <trip id="25" depart="25.00" from="-386286298#5" to="-386286298#4"/>
    <trip id="26" depart="26.00" from="-386286298#3" to="863269435#1"/>
    <trip id="27" depart="27.00" from="386286298#2" to="386286298#2"/>
    <trip id="28" depart="28.00" from="-386286298#1" to="386286298#3"/>
    <trip id="29" depart="29.00" from="-236667146#7" to="-863269435#2"/>
    <trip id="30" depart="30.00" from="863269435#5" to="386286298#2"/>
    <trip id="31" depart="31.00" from="-863269435#5" to="386286298#3"/>
    <trip id="32" depart="32.00" from="41383664#4" to="386286298#4"/>
    <trip id="33" depart="33.00" from="-386286298#2" to="-236667146#3"/>
    <trip id="34" depart="34.00" from="-386286298#4" to="-41383664#2"/>
    <trip id="35" depart="35.00" from="-386286298#2" to="863269435#2"/>
    <trip id="36" depart="36.00" from="737745075#2" to="-737745075#2"/>
    <trip id="37" depart="37.00" from="386286298#2" to="-863269435#2"/>
    <trip id="38" depart="38.00" from="863269435#0" to="115993417#2"/>
    <trip id="39" depart="39.00" from="-386286298#3" to="-386286298#5"/>
    <trip id="40" depart="40.00" from="-863269435#5" to="-41383664#2"/>
    <trip id="41" depart="41.00" from="236667146#1" to="737745075#2"/>
    <trip id="42" depart="42.00" from="-41383664#2" to="-386286298#4"/>
    <trip id="43" depart="43.00" from="863269435#5" to="115993743#1"/>
    <trip id="44" depart="44.00" from="-115993743#1" to="-386286298#1"/>
    <trip id="45" depart="45.00" from="-115993743#1" to="386286298#2"/>
    <trip id="46" depart="46.00" from="386286298#5" to="-863269435#5"/>
    <trip id="47" depart="47.00" from="-115993743#1" to="-863269435#2"/>
    <trip id="48" depart="48.00" from="863269435#5" to="115993743#1"/>
    <trip id="49" depart="49.00" from="863269435#3" to="41383664#5"/>
</routes>
